[General]
sim-time-limit = 10s
seed-set = 12345 # SEED FOR RANDOM NUMBER GENERATOR USED FOR GOOSE MESSAGES

# all Ethernet interfaces have 100 Mbps speed

[Config TimeSynchronization]
# enable time synchronization in all network nodes
*.*.hasTimeSynchronization = true

# IF YOU WANT TO SIMULATE CLOCK DRIFT, MODIFY THESE PARAMETERS
*.gPTPclock.clock.typename = "IdealClock"
*.*.clock.typename = "SettableClock"
#*.MU*.clock.typename = "SettableClock"
#*.switch*.clock.typename = "SettableClock"

*.*.clock.oscillator.typename = "RandomDriftOscillator"
**.oscillator.changeInterval = 12.5ms
**.oscillator.driftRate = uniform(-100ppm, 100ppm)
**.oscillator.driftRateChange = uniform(-1ppm, 1ppm)
**.oscillator.driftRateChangeUpperLimit = 100ppm
**.oscillator.driftRateChangeLowerLimit = -100ppm

#source applications and periodic gates use local clock
*.*.app[*].source.clockModule = "^.^.clock"
*.*.eth[*].macLayer.queue.transmissionGate[*].clockModule = "^.^.^.^.clock"
# make sure sync and pdelay messages don't occur at the same time
*.*.gptp.syncInitialOffset = 5ms
*.*.gptp.syncInterval = 31.25ms
*.*.gptp.pdelayInitialOffset = 0s
*.*.gptp.pdelayInterval = 1s


[Config gPTP_Example]
# Provides visuals for synchronization. Used for debugging purposes
description = "Clock synchronization info for debugging"
extends = ThreeBaysOverProvisioned
*.visualizer.typename = "IntegratedMultiCanvasVisualizer"
#*.visualizer.infoVisualizer[*].displayInfos = true

# Set all reference clocks to master clock so the time difference can be visualized
**.referenceClock = "gPTPclock.clock"

# Synchronization difference visualization
*.visualizer.numInfoVisualizers = 4
*.visualizer.infoVisualizer[0].modules = "*.gPTPclock.clock"
*.visualizer.infoVisualizer[1].modules = "*.switch*.clock"
*.visualizer.infoVisualizer[2].modules = "*.IED*.clock"
*.visualizer.infoVisualizer[3].modules = "*.MU*.clock"
*.visualizer.infoVisualizer[*].placementHint = "left"
*.gPTPclock.clock.displayStringTextFormat = "time: %T"
*.switch*.clock.displayStringTextFormat = "diff: %d"
*.IED*.clock.displayStringTextFormat = "diff: %d"
*.MU*.clock.displayStringTextFormat = "diff: %d"

[Config ThreeBays]
extends = TimeSynchronization

#GPTP CLOCK CONFIGURATION
*.gPTPclock.gptp.masterPorts = ["eth0"]
*.switch_1.gptp.slavePort = "eth0"
*.switch_2.gptp.slavePort = "eth4"
*.switch_3.gptp.slavePort = "eth4"

*.switch_1.gptp.masterPorts = ["eth1", "eth2", "eth3","eth4","eth5","eth6"]
*.switch_2.gptp.masterPorts = ["eth0","eth1", "eth2", "eth3"]
*.switch_3.gptp.masterPorts = ["eth0","eth1", "eth2", "eth3"]

**.hasGlobalArp = true

#IED_1_A MMS TO IED_1_B 
# Will send messages from a list generated in sendscript.txt, 150 Total Bytes per MMS packet
# Currently sends 8333 packets in 10 seconds which is ~1Mbps
# 8333 packets / 10 s * 150 B * 8 = 999 960 bps
**.IED_1_A.numApps = 4
**.IED_1_A.app[0].typename = "TcpSessionApp"
**.IED_1_A.app[0].display-name = "mms"
**.IED_1_A.app[0].tClose = -1s
**.IED_1_A.app[0].active = true
**.IED_1_A.app[0].connectAddress = "IED_1_B" 
**.IED_1_A.app[0].connectPort = 1112
**.IED_1_A.app[0].tOpen = 0s
**.IED_1_A.app[0].tSend = 0s
**.IED_1_A.app[0].sendBytes = 0B
**.IED_1_A.app[0].sendScript = "sendscript_1.txt"

#IED_1_A GOOSE_1A TO MU_1
**.IED_1_A.app[1].typename = "EthernetSourceApp"
**.IED_1_A.app[1].display-name = "goose_1a"
**.IED_1_A.app[1].io.interface = "eth0"
**.IED_1_A.app[1].io.remoteAddress = "01:0C:CD:04:00:50"
**.IED_1_A.app[1].source.packetLength = 134B #160B total
**.IED_1_A.app[1].source.productionInterval = 1s
**.IED_1_A.app[1].source.useGoose = true 
**.IED_1_A.app[1].source.numberOfGooseEvents = 200 #20 * simulation time

#IED_1_A SV SINK
**.IED_1_A.app[2].typename = "EthernetSinkApp"
**.IED_1_A.app[2].display-name = "SV Sink #1"
**.IED_1_A.app[2].io.localAddress = "01:0C:CD:04:00:10"
**.IED_1_A.app[2].io.interface = "eth0"

#IED_1_A LOG Source
**.IED_1_A.app[3].typename = "TcpSessionApp"
**.IED_1_A.app[3].display-name = "IED_1_A LOG"
**.IED_1_A.app[3].tClose = -1s
**.IED_1_A.app[3].active = true
**.IED_1_A.app[3].connectAddress = "log_server" 
**.IED_1_A.app[3].connectPort = 1150
**.IED_1_A.app[3].tOpen = 0s
**.IED_1_A.app[3].tSend = 0s
**.IED_1_A.app[3].sendBytes = 0B
**.IED_1_A.app[3].sendScript = "sendscriptLOG_1.txt"

#IED_1_B GOOSE_1A TO MU_1
**.IED_1_B.numApps = 5
**.IED_1_B.app[0].typename = "EthernetSourceApp"
**.IED_1_B.app[0].display-name = "goose_1a"
**.IED_1_B.app[0].io.interface = "eth0"
**.IED_1_B.app[0].io.remoteAddress = "01:0C:CD:04:00:50"
**.IED_1_B.app[0].source.packetLength = 134B #160B total
**.IED_1_B.app[0].source.productionInterval = 1s
**.IED_1_B.app[0].source.useGoose = true 
**.IED_1_B.app[0].source.numberOfGooseEvents = 200 #20 * simulation time

#IED_1_B GOOSE_1B TO MU_1
**.IED_1_B.app[1].typename = "EthernetSourceApp"
**.IED_1_B.app[1].display-name = "goose_1b"
**.IED_1_B.app[1].io.interface = "eth0"
**.IED_1_B.app[1].io.remoteAddress = "01:0C:CD:04:00:60"
**.IED_1_B.app[1].source.packetLength = 134B #160B total
**.IED_1_B.app[1].source.productionInterval = 1s
**.IED_1_B.app[1].source.useGoose = true 
**.IED_1_B.app[1].source.numberOfGooseEvents = 200 #20 * simulation time

#IED_1_B SV SINK
**.IED_1_B.app[2].typename = "EthernetSinkApp"
**.IED_1_B.app[2].display-name = "SV Sink #1"
**.IED_1_B.app[2].io.localAddress = "01:0C:CD:04:00:10"
**.IED_1_B.app[2].io.interface = "eth0"

#IED_1_B MMS SINK
**.IED_1_B.app[3].typename = "TcpSinkApp"
**.IED_1_B.app[3].display-name = "MMS Sink"
**.IED_1_B.app[3].localPort = 1112

#IED_1_B LOG Source
**.IED_1_B.app[4].typename = "TcpSessionApp"
**.IED_1_B.app[4].display-name = "IED_1_B LOG"
**.IED_1_B.app[4].tClose = -1s
**.IED_1_B.app[4].active = true
**.IED_1_B.app[4].connectAddress = "log_server" 
**.IED_1_B.app[4].connectPort = 1150
**.IED_1_B.app[4].tOpen = 0s
**.IED_1_B.app[4].tSend = 0s
**.IED_1_B.app[4].sendBytes = 0B
**.IED_1_B.app[4].sendScript = "sendscriptLOG_2.txt"

#IED_1_C SV SINK
**.IED_1_C.numApps = 3
**.IED_1_C.app[0].typename = "EthernetSinkApp"
**.IED_1_C.app[0].display-name = "SV Sink #1"
**.IED_1_C.app[0].io.localAddress = "01:0C:CD:04:00:10"
**.IED_1_C.app[0].io.interface = "eth0"

#IED_1_C GOOSE_1B TO MU_1
**.IED_1_C.app[1].typename = "EthernetSourceApp"
**.IED_1_C.app[1].display-name = "goose_1b"
**.IED_1_C.app[1].io.interface = "eth0"
**.IED_1_C.app[1].io.remoteAddress = "01:0C:CD:04:00:60"
**.IED_1_C.app[1].source.packetLength = 134B #160B total
**.IED_1_C.app[1].source.productionInterval = 1s
**.IED_1_C.app[1].source.useGoose = true 
**.IED_1_C.app[1].source.numberOfGooseEvents = 200 #20 * simulation time

#IED_1_C LOG Source
**.IED_1_C.app[2].typename = "TcpSessionApp"
**.IED_1_C.app[2].display-name = "IED_1_C LOG"
**.IED_1_C.app[2].tClose = -1s
**.IED_1_C.app[2].active = true
**.IED_1_C.app[2].connectAddress = "log_server" 
**.IED_1_C.app[2].connectPort = 1150
**.IED_1_C.app[2].tOpen = 0s
**.IED_1_C.app[2].tSend = 0s
**.IED_1_C.app[2].sendBytes = 0B
**.IED_1_C.app[2].sendScript = "sendscriptLOG_3.txt"

#MU_1 SV TO IEDs
**.MU_1.numApps = 4
**.MU_1.app[0].typename = "EthernetSourceApp"
**.MU_1.app[0].display-name = "SV"
**.MU_1.app[0].source.packetLength = 130B #140B total
**.MU_1.app[0].source.productionInterval = 1.0s/4000
**.MU_1.app[0].io.remoteAddress = "01:0C:CD:04:00:10"
**.MU_1.app[0].io.interface = "eth0"

#MU_1 GOOSE_1A SINK
**.MU_1.app[1].typename = "EthernetSinkApp"
**.MU_1.app[1].display-name = "GOOSE_1A Sink"
**.MU_1.app[1].io.interface = "eth0"
**.MU_1.app[1].io.localAddress = "01:0C:CD:04:00:50"

#MU_1 GOOSE_1A SINK
**.MU_1.app[2].typename = "EthernetSinkApp"
**.MU_1.app[2].display-name = "GOOSE_1B Sink"
**.MU_1.app[2].io.interface = "eth0"
**.MU_1.app[2].io.localAddress = "01:0C:CD:04:00:60"

#MU_1 LOG Source
**.MU_1.app[3].typename = "TcpSessionApp"
**.MU_1.app[3].display-name = "MU_1 LOG"
**.MU_1.app[3].tClose = -1s
**.MU_1.app[3].active = true
**.MU_1.app[3].connectAddress = "log_server" 
**.MU_1.app[3].connectPort = 1150
**.MU_1.app[3].tOpen = 0s
**.MU_1.app[3].tSend = 0s
**.MU_1.app[3].sendBytes = 0B
**.MU_1.app[3].sendScript = "sendscriptLOG_4.txt"
										
**.IED_2_A.numApps = 4
**.IED_2_A.app[0].typename = "TcpSessionApp"
**.IED_2_A.app[0].display-name = "mms"
**.IED_2_A.app[0].tClose = -1s
**.IED_2_A.app[0].active = true
**.IED_2_A.app[0].connectAddress = "IED_2_B" 
**.IED_2_A.app[0].connectPort = 1112
**.IED_2_A.app[0].tOpen = 0s
**.IED_2_A.app[0].tSend = 0s
**.IED_2_A.app[0].sendBytes = 0B
**.IED_2_A.app[0].sendScript = "sendscript_2.txt"

#IED_2_A GOOSE_1A TO MU_2
**.IED_2_A.app[1].typename = "EthernetSourceApp"
**.IED_2_A.app[1].display-name = "goose_1a"
**.IED_2_A.app[1].io.interface = "eth0"
**.IED_2_A.app[1].io.remoteAddress = "01:0C:CD:04:00:51"
**.IED_2_A.app[1].source.packetLength = 134B #160B total
**.IED_2_A.app[1].source.productionInterval = 1s
**.IED_2_A.app[1].source.useGoose = true 
**.IED_2_A.app[1].source.numberOfGooseEvents = 200 #20 * simulation time

#IED_2_A SV SINK
**.IED_2_A.app[2].typename = "EthernetSinkApp"
**.IED_2_A.app[2].display-name = "SV Sink #1"
**.IED_2_A.app[2].io.localAddress = "01:0C:CD:04:00:20"
**.IED_2_A.app[2].io.interface = "eth0"

#IED_2_A LOG Source
**.IED_2_A.app[3].typename = "TcpSessionApp"
**.IED_2_A.app[3].display-name = "IED_2_A LOG"
**.IED_2_A.app[3].tClose = -1s
**.IED_2_A.app[3].active = true
**.IED_2_A.app[3].connectAddress = "log_server" 
**.IED_2_A.app[3].connectPort = 1150
**.IED_2_A.app[3].tOpen = 0s
**.IED_2_A.app[3].tSend = 0s
**.IED_2_A.app[3].sendBytes = 0B
**.IED_2_A.app[3].sendScript = "sendscriptLOG_5.txt"

#IED_B_2 GOOSE_1A TO MU_2
**.IED_2_B.numApps = 5
**.IED_2_B.app[0].typename = "EthernetSourceApp"
**.IED_2_B.app[0].display-name = "goose_1a"
**.IED_2_B.app[0].io.interface = "eth0"
**.IED_2_B.app[0].io.remoteAddress = "01:0C:CD:04:00:51"
**.IED_2_B.app[0].source.packetLength = 134B #160B total
**.IED_2_B.app[0].source.productionInterval = 1s
**.IED_2_B.app[0].source.useGoose = true 
**.IED_2_B.app[0].source.numberOfGooseEvents = 200 #20 * simulation time

#IED_2_B GOOSE_1B TO MU_1
**.IED_2_B.app[1].typename = "EthernetSourceApp"
**.IED_2_B.app[1].display-name = "goose_1b"
**.IED_2_B.app[1].io.interface = "eth0"
**.IED_2_B.app[1].io.remoteAddress = "01:0C:CD:04:00:61"
**.IED_2_B.app[1].source.packetLength = 134B #160B total
**.IED_2_B.app[1].source.productionInterval = 1s
**.IED_2_B.app[1].source.useGoose = true 
**.IED_2_B.app[1].source.numberOfGooseEvents = 200 #20 * simulation time

#IED_2_B SV SINK
**.IED_2_B.app[2].typename = "EthernetSinkApp"
**.IED_2_B.app[2].display-name = "SV Sink #1"
**.IED_2_B.app[2].io.localAddress = "01:0C:CD:04:00:20"
**.IED_2_B.app[2].io.interface = "eth0"

#IED_2_B MMS SINK
**.IED_2_B.app[3].typename = "TcpSinkApp"
**.IED_2_B.app[3].display-name = "MMS Sink"
**.IED_2_B.app[3].localPort = 1112

#IED_2_B LOG Source
**.IED_2_B.app[4].typename = "TcpSessionApp"
**.IED_2_B.app[4].display-name = "IED_2_B LOG"
**.IED_2_B.app[4].tClose = -1s
**.IED_2_B.app[4].active = true
**.IED_2_B.app[4].connectAddress = "log_server" 
**.IED_2_B.app[4].connectPort = 1150
**.IED_2_B.app[4].tOpen = 0s
**.IED_2_B.app[4].tSend = 0s
**.IED_2_B.app[4].sendBytes = 0B
**.IED_2_B.app[4].sendScript = "sendscriptLOG_6.txt"

#IED_2_C SV SINK
**.IED_2_C.numApps = 3
**.IED_2_C.app[0].typename = "EthernetSinkApp"
**.IED_2_C.app[0].display-name = "SV Sink #1"
**.IED_2_C.app[0].io.localAddress = "01:0C:CD:04:00:20"
**.IED_2_C.app[0].io.interface = "eth0"

#IED_2_C GOOSE_1B TO MU_1
**.IED_2_C.app[1].typename = "EthernetSourceApp"
**.IED_2_C.app[1].display-name = "goose_1b"
**.IED_2_C.app[1].io.interface = "eth0"
**.IED_2_C.app[1].io.remoteAddress = "01:0C:CD:04:00:61"
**.IED_2_C.app[1].source.packetLength = 134B #160B total
**.IED_2_C.app[1].source.productionInterval = 1s
**.IED_2_C.app[1].source.useGoose = true 
**.IED_2_C.app[1].source.numberOfGooseEvents = 200 #20 * simulation time

#IED_2_C LOG Source
**.IED_2_C.app[2].typename = "TcpSessionApp"
**.IED_2_C.app[2].display-name = "IED_2_C LOG"
**.IED_2_C.app[2].tClose = -1s
**.IED_2_C.app[2].active = true
**.IED_2_C.app[2].connectAddress = "log_server" 
**.IED_2_C.app[2].connectPort = 1150
**.IED_2_C.app[2].tOpen = 0s
**.IED_2_C.app[2].tSend = 0s
**.IED_2_C.app[2].sendBytes = 0B
**.IED_2_C.app[2].sendScript = "sendscriptLOG_7.txt"

#MU_2 SV TO IEDs
**.MU_2.numApps = 3
**.MU_2.app[0].typename = "EthernetSourceApp"
**.MU_2.app[0].display-name = "SV"
**.MU_2.app[0].source.packetLength = 130B #140B total
**.MU_2.app[0].source.productionInterval = 1.0s/4000
**.MU_2.app[0].io.remoteAddress = "01:0C:CD:04:00:20"
**.MU_2.app[0].io.interface = "eth0"

#MU_2 GOOSE_1A SINK
**.MU_2.app[1].typename = "EthernetSinkApp"
**.MU_2.app[1].display-name = "GOOSE_1A Sink"
**.MU_2.app[1].io.interface = "eth0"
**.MU_2.app[1].io.localAddress = "01:0C:CD:04:00:51"

#MU_2 GOOSE_1B SINK
**.MU_2.app[2].typename = "EthernetSinkApp"
**.MU_2.app[2].display-name = "GOOSE_1B Sink"
**.MU_2.app[2].io.interface = "eth0"
**.MU_2.app[2].io.localAddress = "01:0C:CD:04:00:61"

#MU_2 LOG Source
**.MU_2.app[3].typename = "TcpSessionApp"
**.MU_2.app[3].display-name = "MU_2 LOG"
**.MU_2.app[3].tClose = -1s
**.MU_2.app[3].active = true
**.MU_2.app[3].connectAddress = "log_server" 
**.MU_2.app[3].connectPort = 1150
**.MU_2.app[3].tOpen = 0s
**.MU_2.app[3].tSend = 0s
**.MU_2.app[3].sendBytes = 0B
**.MU_2.app[3].sendScript = "sendscriptLOG_8.txt"
										
**.IED_3_A.numApps = 4
**.IED_3_A.app[0].typename = "TcpSessionApp"
**.IED_3_A.app[0].display-name = "mms"
**.IED_3_A.app[0].tClose = -1s
**.IED_3_A.app[0].active = true
**.IED_3_A.app[0].connectAddress = "IED_3_B" 
**.IED_3_A.app[0].connectPort = 1112
**.IED_3_A.app[0].tOpen = 0s
**.IED_3_A.app[0].tSend = 0s
**.IED_3_A.app[0].sendBytes = 0B
**.IED_3_A.app[0].sendScript = "sendscript_3.txt"

#IED_3_A GOOSE_1A TO MU_3
**.IED_3_A.app[1].typename = "EthernetSourceApp"
**.IED_3_A.app[1].display-name = "goose_1a"
**.IED_3_A.app[1].io.interface = "eth0"
**.IED_3_A.app[1].io.remoteAddress = "01:0C:CD:04:00:52"
**.IED_3_A.app[1].source.packetLength = 134B #160B total
**.IED_3_A.app[1].source.productionInterval = 1s
**.IED_3_A.app[1].source.useGoose = true 
**.IED_3_A.app[1].source.numberOfGooseEvents = 200 #20 * simulation time

#IED_3_A SV SINK
**.IED_3_A.app[2].typename = "EthernetSinkApp"
**.IED_3_A.app[2].display-name = "SV Sink #1"
**.IED_3_A.app[2].io.localAddress = "01:0C:CD:04:00:30"
**.IED_3_A.app[2].io.interface = "eth0"

#IED_3_A LOG Source
**.IED_3_A.app[3].typename = "TcpSessionApp"
**.IED_3_A.app[3].display-name = "IED_3_A LOG"
**.IED_3_A.app[3].tClose = -1s
**.IED_3_A.app[3].active = true
**.IED_3_A.app[3].connectAddress = "log_server" 
**.IED_3_A.app[3].connectPort = 1150
**.IED_3_A.app[3].tOpen = 0s
**.IED_3_A.app[3].tSend = 0s
**.IED_3_A.app[3].sendBytes = 0B
**.IED_3_A.app[3].sendScript = "sendscriptLOG_9.txt"

#IED_3_B GOOSE_1A TO MU_3
**.IED_3_B.numApps = 5
**.IED_3_B.app[0].typename = "EthernetSourceApp"
**.IED_3_B.app[0].display-name = "goose_1a"
**.IED_3_B.app[0].io.interface = "eth0"
**.IED_3_B.app[0].io.remoteAddress = "01:0C:CD:04:00:52"
**.IED_3_B.app[0].source.packetLength = 134B #160B total
**.IED_3_B.app[0].source.productionInterval = 1s
**.IED_3_B.app[0].source.useGoose = true 
**.IED_3_B.app[0].source.numberOfGooseEvents = 200 #20 * simulation time

#IED_3_B GOOSE_1B TO MU_1
**.IED_3_B.app[1].typename = "EthernetSourceApp"
**.IED_3_B.app[1].display-name = "goose_1b"
**.IED_3_B.app[1].io.interface = "eth0"
**.IED_3_B.app[1].io.remoteAddress = "01:0C:CD:04:00:62"
**.IED_3_B.app[1].source.packetLength = 134B #160B total
**.IED_3_B.app[1].source.productionInterval = 1s
**.IED_3_B.app[1].source.useGoose = true 
**.IED_3_B.app[1].source.numberOfGooseEvents = 200 #20 * simulation time

#IED_3_B SV SINK
**.IED_3_B.app[2].typename = "EthernetSinkApp"
**.IED_3_B.app[2].display-name = "SV Sink #1"
**.IED_3_B.app[2].io.localAddress = "01:0C:CD:04:00:30"
**.IED_3_B.app[2].io.interface = "eth0"

#IED_3_B MMS SINK
**.IED_3_B.app[3].typename = "TcpSinkApp"
**.IED_3_B.app[3].display-name = "MMS Sink"
**.IED_3_B.app[3].localPort = 1112

#IED_3_B LOG Source
**.IED_3_B.app[4].typename = "TcpSessionApp"
**.IED_3_B.app[4].display-name = "IED_3_B LOG"
**.IED_3_B.app[4].tClose = -1s
**.IED_3_B.app[4].active = true
**.IED_3_B.app[4].connectAddress = "log_server" 
**.IED_3_B.app[4].connectPort = 1150
**.IED_3_B.app[4].tOpen = 0s
**.IED_3_B.app[4].tSend = 0s
**.IED_3_B.app[4].sendBytes = 0B
**.IED_3_B.app[4].sendScript = "sendscriptLOG_10.txt"

#IED_3_C SV SINK
**.IED_3_C.numApps = 3
**.IED_3_C.app[0].typename = "EthernetSinkApp"
**.IED_3_C.app[0].display-name = "SV Sink #1"
**.IED_3_C.app[0].io.localAddress = "01:0C:CD:04:00:30"
**.IED_3_C.app[0].io.interface = "eth0"

#IED_3_C GOOSE_1B TO MU_1
**.IED_3_C.app[1].typename = "EthernetSourceApp"
**.IED_3_C.app[1].display-name = "goose_1b"
**.IED_3_C.app[1].io.interface = "eth0"
**.IED_3_C.app[1].io.remoteAddress = "01:0C:CD:04:00:62"
**.IED_3_C.app[1].source.packetLength = 134B #160B total
**.IED_3_C.app[1].source.productionInterval = 1s
**.IED_3_C.app[1].source.useGoose = true 
**.IED_3_C.app[1].source.numberOfGooseEvents = 200 #20 * simulation time

#IED_3_C LOG Source
**.IED_3_C.app[2].typename = "TcpSessionApp"
**.IED_3_C.app[2].display-name = "IED_3_C LOG"
**.IED_3_C.app[2].tClose = -1s
**.IED_3_C.app[2].active = true
**.IED_3_C.app[2].connectAddress = "log_server" 
**.IED_3_C.app[2].connectPort = 1150
**.IED_3_C.app[2].tOpen = 0s
**.IED_3_C.app[2].tSend = 0s
**.IED_3_C.app[2].sendBytes = 0B
**.IED_3_C.app[2].sendScript = "sendscriptLOG_11.txt"

#MU_3 SV TO IEDs
**.MU_3.numApps = 4
**.MU_3.app[0].typename = "EthernetSourceApp"
**.MU_3.app[0].display-name = "SV"
**.MU_3.app[0].source.packetLength = 130B #140B total
**.MU_3.app[0].source.productionInterval = 1.0s/4000
**.MU_3.app[0].io.remoteAddress = "01:0C:CD:04:00:30"
**.MU_3.app[0].io.interface = "eth0"

#MU_3 GOOSE_1A SINK
**.MU_3.app[1].typename = "EthernetSinkApp"
**.MU_3.app[1].display-name = "GOOSE_1A Sink"
**.MU_3.app[1].io.interface = "eth0"
**.MU_3.app[1].io.localAddress = "01:0C:CD:04:00:52"

#MU_3 GOOSE_1B SINK
**.MU_3.app[2].typename = "EthernetSinkApp"
**.MU_3.app[2].display-name = "GOOSE_1B Sink"
**.MU_3.app[2].io.interface = "eth0"
**.MU_3.app[2].io.localAddress = "01:0C:CD:04:00:62"

#MU_3 LOG Source
**.MU_3.app[3].typename = "TcpSessionApp"
**.MU_3.app[3].display-name = "MU_3 LOG"
**.MU_3.app[3].tClose = -1s
**.MU_3.app[3].active = true
**.MU_3.app[3].connectAddress = "log_server" 
**.MU_3.app[3].connectPort = 1150
**.MU_3.app[3].tOpen = 0s
**.MU_3.app[3].tSend = 0s
**.MU_3.app[3].sendBytes = 0B
**.MU_3.app[3].sendScript = "sendscriptLOG_12.txt"

#LOG SERVER SINK
**.log_server.numApps = 1
**.log_server.app[0].typename = "TcpSinkApp"
**.log_server.app[0].display-name = "Log Server Sink"
**.log_server.app[0].localPort = 1150

#LOG SERVER SINK
**.internet_host_{1..4}.numApps = 2
**.internet_host_{1..4}.app[0].typename = "TcpSessionApp"
**.internet_host_{1..4}.app[0].display-name = "Internet traffic"
**.internet_host_{1..4}.app[0].tClose = -1s
**.internet_host_{1..4}.app[0].active = true
**.internet_host_{1..4}.app[0].connectPort = 1150
**.internet_host_{1..4}.app[0].tOpen = 0s
**.internet_host_{1..4}.app[0].tSend = 0s
**.internet_host_{1..4}.app[0].sendBytes = 0B

**.internet_host_1.app[0].connectAddress = "internet_host_3" 
**.internet_host_1.app[0].sendScript = "sendscriptIT_1.txt"

**.internet_host_2.app[0].connectAddress = "internet_host_4" 
**.internet_host_2.app[0].sendScript = "sendscriptIT_2.txt"

**.internet_host_3.app[0].connectAddress = "internet_host_1" 
**.internet_host_3.app[0].sendScript = "sendscriptIT_3.txt"

**.internet_host_4.app[0].connectAddress = "internet_host_2" 
**.internet_host_4.app[0].sendScript = "sendscriptIT_4.txt"

**.internet_host_{1..4}.app[1].typename = "TcpSinkApp"
**.internet_host_{1..4}.app[1].localPort = 1150

# GOOSE Type 1/1A 	= 01-0C-CD-01-00-00 through 01-0C-CD-01-01-FF 
# SV 				= 01-0C-CD-04-00-00 through 01-0C-CD-04-01-FF 

**.switch_1.macTable.forwardingTable = [{address: "gPTPclock", interface: "eth0"}, \
										{address: "IED_1_A", interface: "eth1"}, \
										{address: "IED_1_B", interface: "eth2"}, \
										{address: "IED_1_C", interface: "eth3"}, \
										{address: "MU_1", interface: "eth4"}, \
										{address: "switch_2", interface: "eth5"}, \
										{address: "switch_3", interface: "eth6"}, \
										{address: "log_server", interface: "eth7"}, \
										{address: "internet_host_1", interface: "eth8"}, \
										{address: "internet_host_2", interface: "eth9"}, \
										{address: "internet_host_3", interface: "eth6"}, \
										{address: "internet_host_4", interface: "eth5"}, \
									  	{address: "01:0C:CD:04:00:10", interface: "eth1"}, \
                                      	{address: "01:0C:CD:04:00:10", interface: "eth2"}, \
									  	{address: "01:0C:CD:04:00:10", interface: "eth3"},  \
										{address: "01:0C:CD:04:00:50", interface: "eth4"}, \
										{address: "01:0C:CD:04:00:60", interface: "eth4"}]

**.switch_2.macTable.forwardingTable = [{address: "IED_2_A", interface: "eth0"}, \
										{address: "IED_2_B", interface: "eth1"}, \
										{address: "IED_2_C", interface: "eth2"}, \
										{address: "MU_2", interface: "eth3"}, \
										{address: "switch_1", interface: "eth4"}, \
										{address: "switch_3", interface: "eth5"}, \
										{address: "log_server", interface: "eth4"}, \
										{address: "internet_host_2", interface: "eth4"}, \
										{address: "internet_host_4", interface: "eth5"}, \
									  	{address: "01:0C:CD:04:00:20", interface: "eth0"}, \
                                      	{address: "01:0C:CD:04:00:20", interface: "eth1"}, \
									  	{address: "01:0C:CD:04:00:20", interface: "eth2"}, \
										{address: "01:0C:CD:04:00:51", interface: "eth3"}, \
										{address: "01:0C:CD:04:00:61", interface: "eth3"}]

**.switch_3.macTable.forwardingTable = [{address: "IED_3_A", interface: "eth0"}, \
										{address: "IED_3_B", interface: "eth1"}, \
										{address: "IED_3_C", interface: "eth2"}, \
										{address: "MU_3", interface: "eth3"}, \
										{address: "switch_1", interface: "eth4"}, \
										{address: "switch_2", interface: "eth5"}, \
										{address: "log_server", interface: "eth4"}, \
										{address: "internet_host_1", interface: "eth4"}, \
										{address: "internet_host_2", interface: "eth5"}, \
										{address: "internet_host_3", interface: "eth6"}, \
										{address: "internet_host_4", interface: "eth7"}, \
									  	{address: "01:0C:CD:04:00:30", interface: "eth0"}, \
                                      	{address: "01:0C:CD:04:00:30", interface: "eth1"}, \
									  	{address: "01:0C:CD:04:00:30", interface: "eth2"}, \
										{address: "01:0C:CD:04:00:52", interface: "eth3"}, \
										{address: "01:0C:CD:04:00:62", interface: "eth3"}]

*.switch*.hasEgressTrafficShaping = true
*.switch*.eth[*].macLayer.queue.*[0].display-name = "Best effort"
*.switch*.eth[*].macLayer.queue.*[1..2].display-name = "N/A"
*.switch*.eth[*].macLayer.queue.*[3].display-name = "MMS"
*.switch*.eth[*].macLayer.queue.*[4].display-name = "GPTP"
*.switch*.eth[*].macLayer.queue.*[5].display-name = "GOOSE 1B"
*.switch*.eth[*].macLayer.queue.*[6].display-name = "GOOSE 1A"
*.switch*.eth[*].macLayer.queue.*[7].display-name = "SV"
*.switch*.eth[*].macLayer.queue.classifier.typename = "ContentBasedClassifier"
*.switch*.eth[*].macLayer.queue.classifier.packetFilters = ["",
															"",
															"",
															expr(has(tcp) && tcp.destPort == 1112),
															expr(name =~ "Gptp*"),
															expr(name =~ "goose_1b*"),
															expr(name =~ "goose_1a*"),
															expr(name =~ "SV*")]

[Config ThreeBaysOverProvisioned]
network = ThreeBaysOverProvisioned
extends = ThreeBays
*.*.eth[*].bitrate = 100Mbps

[Config ThreeBaysUnderProvisioned]
network = ThreeBaysUnderProvisioned
extends = ThreeBays
*.*.eth[*].bitrate = 10Mbps

[Config ThreeBaysOverProvisionedWithTASandCBS]
network = ThreeBaysOverProvisioned
extends = ThreeBaysWithTASandCBS
*.*.eth[*].bitrate = 100Mbps

[Config ThreeBaysUnderProvisionedWithTASandCBS]
network = ThreeBaysUnderProvisioned
extends = ThreeBaysWithTASandCBS
*.*.eth[*].bitrate = 10Mbps

[Config ThreeBaysWithTASandCBS]
extends = ThreeBays

*.IED*.hasOutgoingStreams = true
*.MU*.hasOutgoingStreams = true

*.IED*.bridging.streamIdentifier.identifier.mapping = [{stream: "GOOSE_1A", packetFilter: expr(name =~ "goose_1a*")},
													   {stream: "GOOSE_1B", packetFilter: expr(name =~ "goose_1b*")},
                                                       {stream: "SV", packetFilter: expr(name =~ "SV*")},
                                                       {stream: "MMS", packetFilter: expr(has(tcp))}]
#                                                       {stream: "time", packetFilter: expr(name =~ "Gptp*")}]

*.IED*.bridging.streamCoder.encoder.mapping = [{stream: "GOOSE_1A", pcp:6},
											   {stream: "GOOSE_1B", pcp:5},
											   {stream: "SV", pcp:7},
											   {stream: "MMS", pcp:3}]
# 											   {stream: "time", pcp:4}]

*.MU*.bridging.streamIdentifier.identifier.mapping = [{stream: "GOOSE_1A", packetFilter: expr(name =~ "goose_1a*")},
													   {stream: "GOOSE_1B", packetFilter: expr(name =~ "goose_1b*")},
                                                       {stream: "SV", packetFilter: expr(name =~ "SV*")},
                                                       {stream: "MMS", packetFilter: expr(has(tcp))}]

*.MU*.bridging.streamCoder.encoder.mapping = [{stream: "GOOSE_1A", pcp:6},
											   {stream: "GOOSE_1B", pcp:5},
											   {stream: "SV", pcp:7},
											   {stream: "MMS", pcp:3}]


*.switch*.eth[*].macLayer.queue.transmissionSelectionAlgorithm[5].typename = "Ieee8021qCreditBasedShaper"
*.switch*.eth[*].macLayer.queue.transmissionSelectionAlgorithm[5].idleSlope = 60Mbps
*.switch*.eth[*].macLayer.queue.transmissionSelectionAlgorithm[6].typename = "Ieee8021qCreditBasedShaper"
*.switch*.eth[*].macLayer.queue.transmissionSelectionAlgorithm[6].idleSlope = 60Mbps


#*.switch*.eth[*].macLayer.queue.hasGcl = true
#*.switch*.eth[*].macLayer.queue.gateControlList.numGates = 8
#*.switch*.eth[*].macLayer.queue.gateControlList.mapping = "01234567"
#*.switch*.eth[*].macLayer.queue.gateControlList.durations = [2ms, 2ms]
#*.switch*.eth[*].macLayer.queue.gateControlList.gateStates = ["01111111", "10000000"]

*.switch*.eth[*].macLayer.queue.queue[*].typename = "DropTailQueue"
*.switch*.eth[*].macLayer.queue.queue.dataCapacity = 32000B



